<?xml version="1.0" encoding="UTF-8"?>

<!-- generated on 2022-11-07 16:55:20 by Eclipse SUMO GUI Version 1.14.1
-->

<configuration xmlns:xsi="http://www.w3.org/2001/XMLSchema-instance" xsi:noNamespaceSchemaLocation="http://sumo.dlr.de/xsd/sumoConfiguration.xsd">

    <input>
        <net-file value="single_intersection.net.xml"/>
        <route-files value="single_intersection.rou.xml"/>
    </input>

</configuration>
